LTspice 24.0.12 for Windows
Circuit: * C:\Users\cloti\OneDrive\Desktop\SCHOOL\SIUC\f24\ece495\energy\simulations\haibo\circuit3.asc
Start Time: Thu Sep 19 00:50:14 2024
solver = Normal
Maximum thread count: 12
tnom = 27
temp = 27
method = modified trap
.OP point found by inspection.
Total elapsed time: 8.499 seconds.

