LTspice 24.0.12 for Windows
Circuit: * C:\Users\cloti\OneDrive\Desktop\SCHOOL\SIUC\f24\ece495\energy\simulations\haibo\circuit2.asc
Start Time: Tue Sep 24 23:28:32 2024
solver = Normal
Maximum thread count: 12



.OP point found by inspection.
.step ton_sw1=5e-07



.step ton_sw1=1e-06



.step ton_sw1=2e-06



.step ton_sw1=4e-06
tnom = 27
temp = 27
method = modified trap
.step ton_sw1=8e-06
Total elapsed time: 76.798 seconds.

